Version 4
SHEET 1 1408 680
WIRE 624 -1312 592 -1312
WIRE 752 -1312 704 -1312
WIRE 976 -1312 752 -1312
WIRE -240 -1280 -272 -1280
WIRE -112 -1280 -160 -1280
WIRE 112 -1280 -112 -1280
WIRE 752 -1232 752 -1312
WIRE -112 -1200 -112 -1280
WIRE 896 -1184 896 -1232
WIRE 32 -1152 32 -1200
WIRE 368 -1152 320 -1152
WIRE 496 -1152 448 -1152
WIRE 592 -1152 592 -1312
WIRE 592 -1152 496 -1152
WIRE 624 -1152 592 -1152
WIRE 752 -1152 752 -1168
WIRE 752 -1152 704 -1152
WIRE 816 -1152 752 -1152
WIRE 976 -1136 976 -1312
WIRE 976 -1136 928 -1136
WIRE -560 -1120 -848 -1120
WIRE -496 -1120 -560 -1120
WIRE -368 -1120 -416 -1120
WIRE -272 -1120 -272 -1280
WIRE -272 -1120 -368 -1120
WIRE -240 -1120 -272 -1120
WIRE -112 -1120 -112 -1136
WIRE -112 -1120 -160 -1120
WIRE -48 -1120 -112 -1120
WIRE 496 -1120 496 -1152
WIRE 112 -1104 112 -1280
WIRE 112 -1104 64 -1104
WIRE 192 -1104 112 -1104
WIRE 272 -1104 192 -1104
WIRE 816 -1104 800 -1104
WIRE -560 -1088 -560 -1120
WIRE -368 -1088 -368 -1120
WIRE 976 -1088 928 -1088
WIRE -848 -1072 -848 -1120
WIRE -48 -1072 -64 -1072
WIRE 816 -1072 752 -1072
WIRE 112 -1056 64 -1056
WIRE 192 -1056 112 -1056
WIRE 320 -1056 320 -1152
WIRE 320 -1056 192 -1056
WIRE -1248 -1040 -1248 -1088
WIRE -1072 -1040 -1072 -1104
WIRE -48 -1040 -112 -1040
WIRE 496 -1040 496 -1056
WIRE 496 -1040 416 -1040
WIRE 624 -1040 592 -1040
WIRE 752 -1040 752 -1072
WIRE 752 -1040 704 -1040
WIRE 752 -1024 752 -1040
WIRE -368 -1008 -368 -1024
WIRE -368 -1008 -448 -1008
WIRE -240 -1008 -272 -1008
WIRE -112 -1008 -112 -1040
WIRE -112 -1008 -160 -1008
WIRE 416 -1008 416 -1040
WIRE 496 -1008 496 -1040
WIRE -112 -992 -112 -1008
WIRE 896 -992 896 -1040
WIRE -448 -976 -448 -1008
WIRE -368 -976 -368 -1008
WIRE -848 -960 -848 -992
WIRE -560 -960 -560 -1008
WIRE 32 -960 32 -1008
WIRE 272 -928 272 -1104
WIRE 368 -928 272 -928
WIRE 496 -928 496 -944
WIRE 496 -928 448 -928
WIRE 592 -928 592 -1040
WIRE 592 -928 496 -928
WIRE 624 -928 592 -928
WIRE 752 -928 752 -960
WIRE 752 -928 704 -928
WIRE 976 -928 976 -1088
WIRE 976 -928 752 -928
WIRE -1248 -912 -1248 -960
WIRE -1072 -912 -1072 -960
WIRE -496 -896 -560 -896
WIRE -368 -896 -368 -912
WIRE -368 -896 -416 -896
WIRE -272 -896 -272 -1008
WIRE -272 -896 -368 -896
WIRE -240 -896 -272 -896
WIRE -112 -896 -112 -928
WIRE -112 -896 -160 -896
WIRE 112 -896 112 -1056
WIRE 112 -896 -112 -896
WIRE -560 -864 -560 -896
WIRE -560 -736 -560 -784
FLAG -448 -976 0
FLAG -560 -736 0
FLAG -560 -960 0
FLAG -848 -960 0
FLAG 32 -960 0
FLAG -1248 -912 0
FLAG -1248 -1088 Vcc
FLAG 32 -1200 Vcc
FLAG -1072 -912 0
FLAG -1072 -1104 Vcm
FLAG -64 -1072 Vcm
FLAG -560 -1120 Uin
FLAG 192 -1104 Umo-
FLAG 192 -1056 Umo+
FLAG 416 -1008 0
FLAG 896 -992 0
FLAG 896 -1232 Vcc
FLAG 800 -1104 Vcm
FLAG 976 -1088 Uo+
FLAG 976 -1136 Uo-
SYMBOL AutoGenerated\\ad8132 0 -1088 R0
WINDOW 0 -31 -66 Bottom 2
WINDOW 3 -14 90 Top 2
SYMATTR InstName U1
SYMBOL cap -128 -1200 R0
SYMATTR InstName C1
SYMATTR Value 1p
SYMBOL cap -384 -1088 R0
SYMATTR InstName C2
SYMATTR Value 10p
SYMBOL res -144 -1296 R90
WINDOW 0 0 56 VBottom 2
WINDOW 3 32 56 VTop 2
SYMATTR InstName R2
SYMATTR Value 1.225k
SYMBOL voltage -1248 -1056 R0
WINDOW 123 0 0 Left 2
WINDOW 39 24 44 Left 2
SYMATTR SpiceLine Rser=1m
SYMATTR InstName V1
SYMATTR Value 3.3V
SYMBOL res -144 -1136 R90
WINDOW 0 0 56 VBottom 2
WINDOW 3 32 56 VTop 2
SYMATTR InstName R3
SYMATTR Value 9.19k
SYMBOL cap -128 -992 R0
SYMATTR InstName C3
SYMATTR Value 1p
SYMBOL res -144 -1024 R90
WINDOW 0 0 56 VBottom 2
WINDOW 3 32 56 VTop 2
SYMATTR InstName R4
SYMATTR Value 9.19k
SYMBOL res -144 -912 R90
WINDOW 0 0 56 VBottom 2
WINDOW 3 32 56 VTop 2
SYMATTR InstName R5
SYMATTR Value 1.225k
SYMBOL cap -352 -912 R180
WINDOW 0 24 56 Left 2
WINDOW 3 24 8 Left 2
SYMATTR InstName C4
SYMATTR Value 10p
SYMBOL res -400 -1136 R90
WINDOW 0 0 56 VBottom 2
WINDOW 3 32 56 VTop 2
SYMATTR InstName R6
SYMATTR Value 1.225k
SYMBOL res -400 -912 R90
WINDOW 0 0 56 VBottom 2
WINDOW 3 32 56 VTop 2
SYMATTR InstName R7
SYMATTR Value 1.225k
SYMBOL res -544 -768 R180
WINDOW 0 36 76 Left 2
WINDOW 3 36 40 Left 2
SYMATTR InstName R8
SYMATTR Value 24.9
SYMBOL res -544 -992 R180
WINDOW 0 36 76 Left 2
WINDOW 3 36 40 Left 2
SYMATTR InstName R9
SYMATTR Value 49.9
SYMBOL voltage -848 -1088 R0
WINDOW 123 26 12 Left 2
WINDOW 39 22 86 Left 2
WINDOW 0 -47 8 Left 2
WINDOW 3 22 109 Left 2
SYMATTR Value2 AC 2
SYMATTR SpiceLine Rser=50
SYMATTR InstName V2
SYMATTR Value SINE(0 2 10Meg 0)
SYMBOL voltage -1072 -1056 R0
WINDOW 123 0 0 Left 2
WINDOW 39 24 44 Left 2
SYMATTR SpiceLine Rser=1m
SYMATTR InstName V3
SYMATTR Value 1.5V
SYMBOL AutoGenerated\\ad8132 864 -1120 R0
WINDOW 0 -31 -66 Bottom 2
WINDOW 3 -14 90 Top 2
SYMATTR InstName U2
SYMBOL cap 736 -1232 R0
SYMATTR InstName C7
SYMATTR Value 1p
SYMBOL cap 480 -1120 R0
SYMATTR InstName C8
SYMATTR Value 15p
SYMBOL res 720 -1328 R90
WINDOW 0 0 56 VBottom 2
WINDOW 3 32 56 VTop 2
SYMATTR InstName R11
SYMATTR Value 2.85k
SYMBOL res 720 -1168 R90
WINDOW 0 0 56 VBottom 2
WINDOW 3 32 56 VTop 2
SYMATTR InstName R12
SYMATTR Value 2.64k
SYMBOL cap 736 -1024 R0
SYMATTR InstName C9
SYMATTR Value 1p
SYMBOL res 720 -1056 R90
WINDOW 0 0 56 VBottom 2
WINDOW 3 32 56 VTop 2
SYMATTR InstName R13
SYMATTR Value 2.64k
SYMBOL res 720 -944 R90
WINDOW 0 0 56 VBottom 2
WINDOW 3 32 56 VTop 2
SYMATTR InstName R14
SYMATTR Value 2.85k
SYMBOL cap 512 -944 R180
WINDOW 0 24 56 Left 2
WINDOW 3 24 8 Left 2
SYMATTR InstName C10
SYMATTR Value 15p
SYMBOL res 464 -1168 R90
WINDOW 0 0 56 VBottom 2
WINDOW 3 32 56 VTop 2
SYMATTR InstName R15
SYMATTR Value 2.85k
SYMBOL res 464 -944 R90
WINDOW 0 0 56 VBottom 2
WINDOW 3 32 56 VTop 2
SYMATTR InstName R16
SYMATTR Value 2.85k
TEXT -754 -1272 Left 2 !.ac dec 1000 10 200Meg
