Version 4
SHEET 1 1056 680
WIRE -528 -208 -688 -208
WIRE -304 -208 -448 -208
WIRE 416 -176 384 -176
WIRE 544 -176 496 -176
WIRE 768 -176 544 -176
WIRE -400 -112 -464 -112
WIRE -304 -112 -304 -208
WIRE -304 -112 -336 -112
WIRE 544 -96 544 -176
WIRE 688 -48 688 -96
WIRE -1024 -32 -1088 -32
WIRE -848 -32 -944 -32
WIRE -160 -16 -240 -16
WIRE 0 -16 -80 -16
WIRE 96 -16 0 -16
WIRE 160 -16 96 -16
WIRE 288 -16 240 -16
WIRE 384 -16 384 -176
WIRE 384 -16 288 -16
WIRE 416 -16 384 -16
WIRE 544 -16 544 -32
WIRE 544 -16 496 -16
WIRE 608 -16 544 -16
WIRE 768 0 768 -176
WIRE 768 0 720 0
WIRE 96 16 96 -16
WIRE 288 16 288 -16
WIRE -384 32 -384 0
WIRE 608 32 576 32
WIRE -848 48 -848 -32
WIRE -848 48 -896 48
WIRE -784 48 -848 48
WIRE -688 48 -688 -208
WIRE -688 48 -704 48
WIRE -624 48 -688 48
WIRE -576 48 -624 48
WIRE -464 48 -464 -112
WIRE -464 48 -496 48
WIRE -416 48 -464 48
WIRE 768 48 720 48
WIRE -1344 64 -1344 16
WIRE -1232 64 -1232 16
WIRE -1088 64 -1088 -32
WIRE -896 64 -896 48
WIRE -304 64 -304 -112
WIRE -304 64 -352 64
WIRE -240 64 -240 48
WIRE -240 64 -304 64
WIRE 608 64 544 64
WIRE -1568 80 -1568 32
WIRE -416 80 -448 80
WIRE -624 96 -624 48
WIRE 288 96 288 80
WIRE 288 96 208 96
WIRE 416 96 384 96
WIRE 544 96 544 64
WIRE 544 96 496 96
WIRE 544 112 544 96
WIRE -384 128 -384 96
WIRE 208 128 208 96
WIRE 288 128 288 96
WIRE 96 144 96 96
WIRE 688 144 688 96
WIRE -1344 176 -1344 144
WIRE -1232 176 -1232 144
WIRE -1088 176 -1088 144
WIRE -1568 192 -1568 160
WIRE -896 192 -896 144
WIRE -624 192 -624 160
WIRE -448 192 -448 80
WIRE 160 208 96 208
WIRE 288 208 288 192
WIRE 288 208 240 208
WIRE 384 208 384 96
WIRE 384 208 288 208
WIRE 416 208 384 208
WIRE 544 208 544 176
WIRE 544 208 496 208
WIRE 768 208 768 48
WIRE 768 208 544 208
WIRE 96 240 96 208
WIRE 96 368 96 320
FLAG -384 128 0
FLAG -1344 176 0
FLAG -1344 16 Vcc
FLAG -384 0 Vcc
FLAG -1088 176 0
FLAG -896 192 0
FLAG -1232 176 0
FLAG -1232 16 Vcm
FLAG -448 192 Vcm
FLAG -304 64 Vo
FLAG -896 48 Vin
FLAG -624 192 0
FLAG 208 128 0
FLAG 96 368 0
FLAG 96 144 0
FLAG 688 144 0
FLAG 688 -96 Vcc
FLAG 768 48 Our+
FLAG 768 0 Uor-
FLAG -1568 192 0
FLAG -1568 32 Vcm2
FLAG 576 32 Vcm2
FLAG 0 -16 Vin2
SYMBOL voltage -1344 48 R0
WINDOW 123 0 0 Left 2
WINDOW 39 0 0 Left 2
SYMATTR InstName V1
SYMATTR Value 3.3
SYMBOL voltage -1088 48 R0
WINDOW 3 24 152 Left 2
WINDOW 123 24 180 Left 2
WINDOW 39 24 124 Left 2
SYMATTR Value SINE(0 2 10Meg)
SYMATTR Value2 AC 2
SYMATTR InstName V2
SYMBOL res -912 48 R0
SYMATTR InstName R1
SYMATTR Value 16.5
SYMBOL res -480 32 R90
WINDOW 0 0 56 VBottom 2
WINDOW 3 32 56 VTop 2
SYMATTR InstName R2
SYMATTR Value 10.7k
SYMBOL res -688 32 R90
WINDOW 0 0 56 VBottom 2
WINDOW 3 32 56 VTop 2
SYMATTR InstName R3
SYMATTR Value 3.92k
SYMBOL voltage -1232 48 R0
WINDOW 123 0 0 Left 2
WINDOW 39 0 0 Left 2
SYMATTR InstName V3
SYMATTR Value 0.75
SYMBOL cap -336 -128 R90
WINDOW 0 0 32 VBottom 2
WINDOW 3 32 32 VTop 2
SYMATTR InstName C1
SYMATTR Value 0.56p
SYMBOL cap -608 160 R180
WINDOW 0 24 56 Left 2
WINDOW 3 24 8 Left 2
SYMATTR InstName C2
SYMATTR Value 4.7p
SYMBOL res -432 -224 R90
WINDOW 0 0 56 VBottom 2
WINDOW 3 32 56 VTop 2
SYMATTR InstName R4
SYMATTR Value 3.92k
SYMBOL Opamps\\LT1819 -384 64 R0
SYMATTR InstName U1
SYMBOL AutoGenerated\\ad8132 656 16 R0
WINDOW 0 -31 -66 Bottom 2
WINDOW 3 -14 90 Top 2
SYMATTR InstName U2
SYMBOL cap 528 -96 R0
SYMATTR InstName C3
SYMATTR Value 0.33p
SYMBOL cap 272 16 R0
SYMATTR InstName C4
SYMATTR Value 7.5p
SYMBOL res 512 -192 R90
WINDOW 0 0 56 VBottom 2
WINDOW 3 32 56 VTop 2
SYMATTR InstName R5
SYMATTR Value 6.19k
SYMBOL res 512 -32 R90
WINDOW 0 0 56 VBottom 2
WINDOW 3 32 56 VTop 2
SYMATTR InstName R6
SYMATTR Value 7.5k
SYMBOL cap 528 112 R0
SYMATTR InstName C5
SYMATTR Value 0.33p
SYMBOL res 512 80 R90
WINDOW 0 0 56 VBottom 2
WINDOW 3 32 56 VTop 2
SYMATTR InstName R7
SYMATTR Value 7.5k
SYMBOL res 512 192 R90
WINDOW 0 0 56 VBottom 2
WINDOW 3 32 56 VTop 2
SYMATTR InstName R8
SYMATTR Value 6.19k
SYMBOL cap 304 192 R180
WINDOW 0 24 56 Left 2
WINDOW 3 24 8 Left 2
SYMATTR InstName C6
SYMATTR Value 7.5p
SYMBOL res 256 -32 R90
WINDOW 0 0 56 VBottom 2
WINDOW 3 32 56 VTop 2
SYMATTR InstName R9
SYMATTR Value 1.54k
SYMBOL res 256 192 R90
WINDOW 0 0 56 VBottom 2
WINDOW 3 32 56 VTop 2
SYMATTR InstName R10
SYMATTR Value 1.54k
SYMBOL res 112 112 R180
WINDOW 0 36 76 Left 2
WINDOW 3 36 40 Left 2
SYMATTR InstName R11
SYMATTR Value 50
SYMBOL res 112 336 R180
WINDOW 0 36 76 Left 2
WINDOW 3 36 40 Left 2
SYMATTR InstName R12
SYMATTR Value 25
SYMBOL res -176 0 R270
WINDOW 0 32 56 VTop 2
WINDOW 3 0 56 VBottom 2
SYMATTR InstName R13
SYMATTR Value 50
SYMBOL res -928 -48 R90
WINDOW 0 0 56 VBottom 2
WINDOW 3 32 56 VTop 2
SYMATTR InstName R14
SYMATTR Value 50
SYMBOL cap -256 -16 R0
SYMATTR InstName C7
SYMATTR Value 470µ
SYMBOL voltage -1568 64 R0
WINDOW 123 0 0 Left 2
WINDOW 39 0 0 Left 2
SYMATTR InstName V4
SYMATTR Value 1.5
TEXT -1602 392 Left 2 !.ac dec 1000 10 150Meg
