Version 4
SHEET 1 1180 680
WIRE 384 -128 304 -128
WIRE 560 -128 448 -128
WIRE -240 -32 -240 -48
WIRE -96 -32 -240 -32
WIRE -48 -32 -96 -32
WIRE 304 -32 304 -128
WIRE 384 -32 304 -32
WIRE 560 -32 560 -128
WIRE 560 -32 464 -32
WIRE -240 -16 -240 -32
WIRE -96 80 -96 -32
WIRE -48 80 -96 80
WIRE 432 96 432 80
WIRE 560 96 560 -32
WIRE 592 96 560 96
WIRE 720 96 672 96
WIRE 832 96 720 96
WIRE 720 112 720 96
WIRE 48 144 -16 144
WIRE 192 144 48 144
WIRE 304 144 304 -32
WIRE 304 144 272 144
WIRE 336 144 304 144
WIRE 560 144 560 96
WIRE 560 144 528 144
WIRE 336 176 304 176
WIRE 720 192 720 176
WIRE 784 192 720 192
WIRE 336 208 304 208
WIRE 544 208 528 208
WIRE 720 208 720 192
WIRE 432 272 432 224
WIRE 192 288 160 288
WIRE 304 288 304 208
WIRE 304 288 272 288
WIRE 544 288 544 208
WIRE 560 288 544 288
WIRE 720 288 720 272
WIRE 720 288 640 288
WIRE 832 288 720 288
WIRE 304 336 304 288
WIRE 400 336 304 336
WIRE 544 336 544 288
WIRE 544 336 480 336
FLAG -448 -16 0
FLAG -544 240 0
FLAG 432 272 0
FLAG -448 -96 VCC
FLAG -544 160 SIG
FLAG 432 80 VCC
FLAG -16 144 SIG
FLAG 1088 416 0
FLAG 1088 336 OUT
FLAG 832 96 OUT
FLAG -240 64 0
FLAG -240 -128 VCC
FLAG 304 176 COMM
FLAG -48 80 0
FLAG -48 -32 COMM
FLAG 160 368 0
FLAG 976 416 0
FLAG 976 336 OUT2
FLAG 832 288 OUT2
FLAG 48 224 0
FLAG 784 192 0
SYMBOL voltage -448 -112 R0
WINDOW 123 0 0 Left 2
WINDOW 39 0 0 Left 2
SYMATTR InstName V1
SYMATTR Value 3.5
SYMBOL voltage -544 144 R0
WINDOW 123 0 0 Left 2
WINDOW 39 24 124 Left 2
SYMATTR InstName V2
SYMATTR Value SINE(0 1 15meg 0 0 0 10)
SYMATTR SpiceLine Rser=50
SYMBOL res 480 -48 R90
WINDOW 0 0 56 VBottom 2
WINDOW 3 32 56 VTop 2
SYMATTR InstName R1
SYMATTR Value 2.7k
SYMBOL res 288 128 R90
WINDOW 0 0 56 VBottom 2
WINDOW 3 32 56 VTop 2
SYMATTR InstName R2
SYMATTR Value 1k
SYMBOL res 1072 320 R0
SYMATTR InstName R3
SYMATTR Value 1meg
SYMBOL res -256 -144 R0
SYMATTR InstName R4
SYMATTR Value 39k
SYMBOL res -256 -32 R0
SYMATTR InstName R5
SYMATTR Value 30k
SYMBOL AutoGenerated\\ad8132 464 160 R0
SYMATTR InstName U1
SYMBOL res 960 320 R0
SYMATTR InstName R6
SYMATTR Value 1meg
SYMBOL res 496 320 R90
WINDOW 0 0 56 VBottom 2
WINDOW 3 32 56 VTop 2
SYMATTR InstName R7
SYMATTR Value 2.7k
SYMBOL res 288 272 R90
WINDOW 0 0 56 VBottom 2
WINDOW 3 32 56 VTop 2
SYMATTR InstName R8
SYMATTR Value 1k
SYMBOL res 32 128 R0
SYMATTR InstName R9
SYMATTR Value 50
SYMBOL res 144 272 R0
SYMATTR InstName R10
SYMATTR Value 25
SYMBOL cap 704 112 R0
SYMATTR InstName C1
SYMATTR Value 10p
SYMBOL cap 704 208 R0
SYMATTR InstName C2
SYMATTR Value 10p
SYMBOL res 688 80 R90
WINDOW 0 0 56 VBottom 2
WINDOW 3 32 56 VTop 2
SYMATTR InstName R11
SYMATTR Value 820
SYMBOL res 656 272 R90
WINDOW 0 0 56 VBottom 2
WINDOW 3 32 56 VTop 2
SYMATTR InstName R12
SYMATTR Value 820
TEXT -578 440 Left 2 !.tran 0 700n 1n 100p
