Version 4
SHEET 1 1408 680
WIRE 592 -1264 560 -1264
WIRE 720 -1264 672 -1264
WIRE 944 -1264 720 -1264
WIRE 1280 -1232 1216 -1232
WIRE 1216 -1200 1216 -1232
WIRE 1280 -1200 1280 -1232
WIRE 720 -1184 720 -1264
WIRE 864 -1136 864 -1184
WIRE 272 -1104 -16 -1104
WIRE 336 -1104 272 -1104
WIRE 464 -1104 416 -1104
WIRE 560 -1104 560 -1264
WIRE 560 -1104 464 -1104
WIRE 592 -1104 560 -1104
WIRE 720 -1104 720 -1120
WIRE 720 -1104 672 -1104
WIRE 784 -1104 720 -1104
WIRE 944 -1088 944 -1264
WIRE 944 -1088 896 -1088
WIRE 1024 -1088 944 -1088
WIRE 1072 -1088 1024 -1088
WIRE 1216 -1088 1216 -1136
WIRE 1216 -1088 1152 -1088
WIRE 1280 -1088 1216 -1088
WIRE 272 -1072 272 -1104
WIRE 464 -1072 464 -1104
WIRE -16 -1056 -16 -1104
WIRE 784 -1056 768 -1056
WIRE 944 -1040 896 -1040
WIRE 1024 -1040 944 -1040
WIRE 1072 -1040 1024 -1040
WIRE 1216 -1040 1152 -1040
WIRE 1280 -1040 1216 -1040
WIRE -416 -1024 -416 -1072
WIRE -240 -1024 -240 -1088
WIRE 784 -1024 720 -1024
WIRE 1216 -1024 1216 -1040
WIRE 464 -992 464 -1008
WIRE 464 -992 384 -992
WIRE 592 -992 560 -992
WIRE 720 -992 720 -1024
WIRE 720 -992 672 -992
WIRE 720 -976 720 -992
WIRE 384 -960 384 -992
WIRE 464 -960 464 -992
WIRE -16 -944 -16 -976
WIRE 272 -944 272 -992
WIRE 864 -944 864 -992
WIRE -416 -896 -416 -944
WIRE -240 -896 -240 -944
WIRE 1216 -896 1216 -960
WIRE 336 -880 272 -880
WIRE 464 -880 464 -896
WIRE 464 -880 416 -880
WIRE 560 -880 560 -992
WIRE 560 -880 464 -880
WIRE 592 -880 560 -880
WIRE 720 -880 720 -912
WIRE 720 -880 672 -880
WIRE 944 -880 944 -1040
WIRE 944 -880 720 -880
WIRE 272 -848 272 -880
WIRE 272 -720 272 -768
FLAG 384 -960 0
FLAG 272 -720 0
FLAG 272 -944 0
FLAG -16 -944 0
FLAG 864 -944 0
FLAG -416 -896 0
FLAG -416 -1072 Vcc
FLAG 864 -1184 Vcc
FLAG -240 -896 0
FLAG -240 -1088 Vcm
FLAG 768 -1056 Vcm
FLAG 1280 -1088 Urco-
FLAG 1280 -1040 Urco+
FLAG 272 -1104 Uin
FLAG 1216 -896 0
FLAG 1280 -1200 0
FLAG 1024 -1088 Uo-
FLAG 1024 -1040 Uo+
SYMBOL AutoGenerated\\ad8132 832 -1072 R0
WINDOW 0 -31 -66 Bottom 2
WINDOW 3 -14 90 Top 2
SYMATTR InstName U1
SYMBOL cap 704 -1184 R0
SYMATTR InstName C1
SYMATTR Value 4.7p
SYMBOL cap 448 -1072 R0
SYMATTR InstName C2
SYMATTR Value 22p
SYMBOL res 688 -1280 R90
WINDOW 0 0 56 VBottom 2
WINDOW 3 32 56 VTop 2
SYMATTR InstName R2
SYMATTR Value 910
SYMBOL voltage -416 -1040 R0
WINDOW 123 0 0 Left 2
WINDOW 39 24 44 Left 2
SYMATTR SpiceLine Rser=1m
SYMATTR InstName V1
SYMATTR Value 3.3V
SYMBOL res 688 -1120 R90
WINDOW 0 0 56 VBottom 2
WINDOW 3 32 56 VTop 2
SYMATTR InstName R3
SYMATTR Value 1.1k
SYMBOL cap 704 -976 R0
SYMATTR InstName C3
SYMATTR Value 4.7p
SYMBOL res 688 -1008 R90
WINDOW 0 0 56 VBottom 2
WINDOW 3 32 56 VTop 2
SYMATTR InstName R4
SYMATTR Value 1.1k
SYMBOL res 688 -896 R90
WINDOW 0 0 56 VBottom 2
WINDOW 3 32 56 VTop 2
SYMATTR InstName R5
SYMATTR Value 910
SYMBOL cap 480 -896 R180
WINDOW 0 24 56 Left 2
WINDOW 3 24 8 Left 2
SYMATTR InstName C4
SYMATTR Value 22p
SYMBOL res 432 -1120 R90
WINDOW 0 0 56 VBottom 2
WINDOW 3 32 56 VTop 2
SYMATTR InstName R6
SYMATTR Value 910
SYMBOL res 432 -896 R90
WINDOW 0 0 56 VBottom 2
WINDOW 3 32 56 VTop 2
SYMATTR InstName R7
SYMATTR Value 910
SYMBOL res 288 -752 R180
WINDOW 0 36 76 Left 2
WINDOW 3 36 40 Left 2
SYMATTR InstName R8
SYMATTR Value 24.9
SYMBOL res 288 -976 R180
WINDOW 0 36 76 Left 2
WINDOW 3 36 40 Left 2
SYMATTR InstName R9
SYMATTR Value 49.9
SYMBOL voltage -16 -1072 R0
WINDOW 123 26 12 Left 2
WINDOW 39 22 86 Left 2
WINDOW 0 -47 8 Left 2
WINDOW 3 22 109 Left 2
SYMATTR Value2 AC 1
SYMATTR SpiceLine Rser=50
SYMATTR InstName V2
SYMATTR Value SINE(0 1 5Meg 0)
SYMBOL voltage -240 -1040 R0
WINDOW 123 0 0 Left 2
WINDOW 39 24 44 Left 2
SYMATTR SpiceLine Rser=1m
SYMATTR InstName V3
SYMATTR Value 1.5V
SYMBOL res 1168 -1104 R90
WINDOW 0 0 56 VBottom 2
WINDOW 3 -65 83 VTop 2
SYMATTR InstName R1
SYMATTR Value 560
SYMBOL res 1168 -1056 R90
WINDOW 0 65 51 VBottom 2
WINDOW 3 62 67 VTop 2
SYMATTR InstName R10
SYMATTR Value 560
SYMBOL cap 1232 -960 R180
WINDOW 0 24 56 Left 2
WINDOW 3 24 8 Left 2
SYMATTR InstName C5
SYMATTR Value 4.7p
SYMBOL cap 1232 -1136 R180
WINDOW 0 24 56 Left 2
WINDOW 3 24 8 Left 2
SYMATTR InstName C6
SYMATTR Value 4.7p
TEXT -128 -816 Left 2 !.ac dec 1000 10 1G
