Version 4
SHEET 1 1792 680
WIRE 1008 -1568 976 -1568
WIRE 1136 -1568 1088 -1568
WIRE 1360 -1568 1136 -1568
WIRE 1696 -1536 1632 -1536
WIRE 1632 -1504 1632 -1536
WIRE 1696 -1504 1696 -1536
WIRE 1136 -1488 1136 -1568
WIRE 1280 -1440 1280 -1488
WIRE 688 -1408 400 -1408
WIRE 752 -1408 688 -1408
WIRE 880 -1408 832 -1408
WIRE 976 -1408 976 -1568
WIRE 976 -1408 880 -1408
WIRE 1008 -1408 976 -1408
WIRE 1136 -1408 1136 -1424
WIRE 1136 -1408 1088 -1408
WIRE 1200 -1408 1136 -1408
WIRE 1360 -1392 1360 -1568
WIRE 1360 -1392 1312 -1392
WIRE 1440 -1392 1360 -1392
WIRE 1488 -1392 1440 -1392
WIRE 1632 -1392 1632 -1440
WIRE 1632 -1392 1568 -1392
WIRE 1696 -1392 1632 -1392
WIRE 688 -1376 688 -1408
WIRE 880 -1376 880 -1408
WIRE 400 -1360 400 -1408
WIRE 1200 -1360 1184 -1360
WIRE 1360 -1344 1312 -1344
WIRE 1440 -1344 1360 -1344
WIRE 1488 -1344 1440 -1344
WIRE 1632 -1344 1568 -1344
WIRE 1696 -1344 1632 -1344
WIRE 0 -1328 0 -1376
WIRE 176 -1328 176 -1392
WIRE 1200 -1328 1136 -1328
WIRE 1632 -1328 1632 -1344
WIRE 880 -1296 880 -1312
WIRE 880 -1296 800 -1296
WIRE 1008 -1296 976 -1296
WIRE 1136 -1296 1136 -1328
WIRE 1136 -1296 1088 -1296
WIRE 1136 -1280 1136 -1296
WIRE 800 -1264 800 -1296
WIRE 880 -1264 880 -1296
WIRE 400 -1248 400 -1280
WIRE 688 -1248 688 -1296
WIRE 1280 -1248 1280 -1296
WIRE 0 -1200 0 -1248
WIRE 176 -1200 176 -1248
WIRE 1632 -1200 1632 -1264
WIRE 752 -1184 688 -1184
WIRE 880 -1184 880 -1200
WIRE 880 -1184 832 -1184
WIRE 976 -1184 976 -1296
WIRE 976 -1184 880 -1184
WIRE 1008 -1184 976 -1184
WIRE 1136 -1184 1136 -1216
WIRE 1136 -1184 1088 -1184
WIRE 1360 -1184 1360 -1344
WIRE 1360 -1184 1136 -1184
WIRE 688 -1152 688 -1184
WIRE 688 -1024 688 -1072
FLAG 800 -1264 0
FLAG 688 -1024 0
FLAG 688 -1248 0
FLAG 400 -1248 0
FLAG 1280 -1248 0
FLAG 0 -1200 0
FLAG 0 -1376 Vcc
FLAG 1280 -1488 Vcc
FLAG 176 -1200 0
FLAG 176 -1392 Vcm
FLAG 1184 -1360 Vcm
FLAG 1696 -1392 Urco-
FLAG 1696 -1344 Urco+
FLAG 688 -1408 Uin
FLAG 1632 -1200 0
FLAG 1696 -1504 0
FLAG 1440 -1392 Uo-
FLAG 1440 -1344 Uo+
SYMBOL AutoGenerated\\ad8132 1248 -1376 R0
WINDOW 0 -31 -66 Bottom 2
WINDOW 3 -14 90 Top 2
SYMATTR InstName U1
SYMBOL cap 1120 -1488 R0
SYMATTR InstName C1
SYMATTR Value 0.47p
SYMBOL cap 864 -1376 R0
SYMATTR InstName C2
SYMATTR Value 4.7p
SYMBOL res 1104 -1584 R90
WINDOW 0 0 56 VBottom 2
WINDOW 3 32 56 VTop 2
SYMATTR InstName R2
SYMATTR Value 6.2k
SYMBOL voltage 0 -1344 R0
WINDOW 123 0 0 Left 2
WINDOW 39 24 44 Left 2
SYMATTR SpiceLine Rser=1m
SYMATTR InstName V1
SYMATTR Value 3.3V
SYMBOL res 1104 -1424 R90
WINDOW 0 0 56 VBottom 2
WINDOW 3 32 56 VTop 2
SYMATTR InstName R3
SYMATTR Value 8.2k
SYMBOL cap 1120 -1280 R0
SYMATTR InstName C3
SYMATTR Value 0.47p
SYMBOL res 1104 -1312 R90
WINDOW 0 0 56 VBottom 2
WINDOW 3 32 56 VTop 2
SYMATTR InstName R4
SYMATTR Value 8.2k
SYMBOL res 1104 -1200 R90
WINDOW 0 0 56 VBottom 2
WINDOW 3 32 56 VTop 2
SYMATTR InstName R5
SYMATTR Value 6.2k
SYMBOL cap 896 -1200 R180
WINDOW 0 24 56 Left 2
WINDOW 3 24 8 Left 2
SYMATTR InstName C4
SYMATTR Value 4.7p
SYMBOL res 848 -1424 R90
WINDOW 0 0 56 VBottom 2
WINDOW 3 32 56 VTop 2
SYMATTR InstName R6
SYMATTR Value 3k
SYMBOL res 848 -1200 R90
WINDOW 0 0 56 VBottom 2
WINDOW 3 32 56 VTop 2
SYMATTR InstName R7
SYMATTR Value 3k
SYMBOL res 704 -1056 R180
WINDOW 0 36 76 Left 2
WINDOW 3 36 40 Left 2
SYMATTR InstName R8
SYMATTR Value 24.9
SYMBOL res 704 -1280 R180
WINDOW 0 36 76 Left 2
WINDOW 3 36 40 Left 2
SYMATTR InstName R9
SYMATTR Value 49.9
SYMBOL voltage 400 -1376 R0
WINDOW 123 26 12 Left 2
WINDOW 39 22 86 Left 2
WINDOW 0 -47 8 Left 2
WINDOW 3 22 109 Left 2
SYMATTR Value2 AC 1
SYMATTR SpiceLine Rser=50
SYMATTR InstName V2
SYMATTR Value SINE(0 1 13Meg 0)
SYMBOL voltage 176 -1344 R0
WINDOW 123 0 0 Left 2
WINDOW 39 24 44 Left 2
SYMATTR SpiceLine Rser=1m
SYMATTR InstName V3
SYMATTR Value 1.5V
SYMBOL res 1584 -1408 R90
WINDOW 0 0 56 VBottom 2
WINDOW 3 -65 83 VTop 2
SYMATTR InstName R1
SYMATTR Value 560
SYMBOL res 1584 -1360 R90
WINDOW 0 65 51 VBottom 2
WINDOW 3 62 67 VTop 2
SYMATTR InstName R10
SYMATTR Value 560
SYMBOL cap 1648 -1264 R180
WINDOW 0 24 56 Left 2
WINDOW 3 24 8 Left 2
SYMATTR InstName C5
SYMATTR Value 6.8p
SYMBOL cap 1648 -1440 R180
WINDOW 0 24 56 Left 2
WINDOW 3 24 8 Left 2
SYMATTR InstName C6
SYMATTR Value 6.8p
TEXT 310 -1152 Left 2 !.ac dec 1000 10 1g
